* PSpice Model Editor - Version 9.2.1
*$
.SUBCKT IXTA60N20X4 D G S
*********************************************************************
*Note:                                                              *
* Althought models can be a useful tool in evaluating device        *
* performance, they cannot model exact device performance           *
* under all conditions, nor are they intended to replace            *
* bread boarding for final verification. Therefore IXYS does        *
* not assume any liability arsing from their use.  IXYS reserves    *
* the right to change models without prior notice. The Pspice model *
* does not constitute product data sheet. Designer should refer to  *
* the data sheet to guranteed the limit and specification.          *
*********************************************************************
** model generated on  2/22/22
* Node 1 -> Drain
* Node 2 -> Gate 
* Node 3 -> Source
.FUNC Rdson(X1) {limit(0.7014*exp(0.0056*abs(X1)),1,2)}
C_gs 70 Sg 2.5n
L_d D d2 1n
R_dd D d2 0.3
G_ds d2 9 value={V(d2,9)/(Rdson(V(Vsen))*0.0100)}
E_sen Vsen 0 value={V(S11,Sg)/0.0001}
L_Gs G G1 8n
R_gss G G1 0.8
R_gs G1 70 7.45
L_s Sg S 4n
R_ss Sg S 0.02
R_S S11 Sg 0.0001
*
X_D d2 Sg D_60N20X4 
X_Ch 70 9 S11 60N20X4_CH
X_Cgd 9 70 A_1_60N20X4 
*C_Cdg 9 70 10p
X_Cds d2 Sg A_2_60N20X4  
.ENDS
*$
.subckt 60N20X4_CH gg1 dd1 ss2
.FUNC GB_1st(X2) {-0.2*pwr(Gate_Lim(X2),2)+3.4*Gate_Lim(X2)-7.2}
.FUNC GB_2nd(X3) {0.03*Gate_Lim(X3)+6.96}
.FUNC GB_SEL_A(X4) {IF(X4<6,Gate_Lim(X4),GB_SEL_B(X4))}
.FUNC GB_SEL_B(X5) {IF(X5<8,GB_1st(X5),GB_2nd(X5))}
.FUNC Gate_Lim(X8) {limit(X8,4.50,20)}
.FUNC Lamp(X9) {limit(-0.013*Gate_Lim(X9)+0.098,0.002,0.015)}
.FUNC ALL(XG1,XD2) {(1+0.0010*abs(XD2))*0.5*45*PWR
+((GB_SEL_A(XG1)-4.50),2)*(1-exp(-1.05*abs(XD2)))}
G_ch dd1 ss1 Value={IF((V(dd1)-V(ss2))<0, (-ALL(V(gg1,ss1),V(dd1,ss2))), ALL(V(gg1,ss2),V(dd1,ss2)))}
R_dd dd1 ss2 500e6
R_ss ss1 ss2 0.00001
.ends 
*$
.SUBCKT D_60N20X4  D S
D_1 S1 Dn BD1
L_D1 Dn D 30n
R_D1 Dn D 1
G_In S1 D value={1.0*V(Dn,D)}
V_S1 S S1 0
R_dd D S 1000e6
.MODEL BD1 D
+ IS=319.75E-21
+ N=.54914
+ RS=2.9841E-3
+ IKF=745.68E-6
+ CJO=1.0000E-12
+ M=.3333
+ VJ=.75
+ ISR=155.20E-9
+ BV=200.90
+ IBV=25.942E-3
.ENDS
*$
.SUBCKT A_1_60N20X4 DP GN
.param CdsAdj=2
R_ee DP DPs_d 10e-3
R_gg DNg_g GN 10e-3
G_Cds DPs_d DNg_g value={(V(LowVH))*I(V_set)}
E_set V_CurrentP V_CurrentN DPs_d DNg_g 1
C_set V_CurrentP 0 1e-12
V_set 0 V_CurrentN 0
E_LowVH LowVH 0 TABLE {abs(V(DP)-V(GN))}=(
+(1,800)
+(5,280)
+(10,100)
+(20,1)
+(50,1.2)
+(100,2.5)
+(120,2.7)
+(200,4))
E_constant Vconst 0 TABLE {Max(V(DP)-V(GN),0)}=(
+(0,700))
.FUNC FactoryCds(X2) {80*pwr(25/abs(X2),0.2)}
*E_Sel V_Sel 0 value={IF(V(DP,GN)<25, V(LowVH), FactoryCds(V(DP,GN)))}
E_Sel V_Sel 0 value={IF(V(DP,GN)<0, 1.0*V(LowVH),1.0*V(LowVH))}
.ENDS
*$
.SUBCKT A_2_60N20X4  Ps_d Ns_s
*.param soft_sw_cds=1
.param CdsAdj=2
*R_ee2 Ps_d Ps_d1 1e-3
G_Cds Ps_d Ns_s value={(V(LowVH))*I(V_set)}
E_set V_CurrentP V_CurrentN Ps_d Ns_s 1
C_set V_CurrentP 0 1e-12
V_set 0 V_CurrentN 0
E_LowVH LowVH 0 TABLE {abs(V(Ps_d)-V(Ns_s))}=(
+(1,9200)
+(5,5720)
+(10,4900)
+(20,999)
+(50,198)
+(100,147)
+(120,127)
+(200,106))
E_constant Vconst 0 TABLE {Max(V(Ps_d)-V(Ns_s),0)}=(
+(20,335))
.FUNC Factory(X2) {120*pwr(25/abs(X2),0.2)}
*E_Sel V_Sel 0 value={IF(V(Ps_d1,Ns_s)<25, V(LowVH), Factory(V(Ps_d1,Ns_s)))}
E_Sel V_Sel 0 value={V(LowVH)}
.ENDS
*$
