2
9
.tran 1m 5
1
1
+5V
V
1
.ac dec 100000 10 1k
2
9
+5V
V
5
+5V
V
